@<TRIPOS>MOLECULE
*****
 112 118 0 0 0
SMALL
GASTEIGER

@<TRIPOS>ATOM
      1 C          -7.9119    2.8276   -1.3814 C.3     1  UNL1        0.1210
      2 C           5.5469   -1.7618   -0.5197 C.3     1  UNL1        0.1105
      3 C           4.6727   -3.0110   -0.4374 C.3     1  UNL1        0.0854
      4 C           2.8105   -1.8297    0.6990 C.3     1  UNL1        0.0929
      5 C          -6.8893    1.5313    0.3506 C.3     1  UNL1        0.1991
      6 C           4.6143    6.8178   -0.2182 C.ar    1  UNL1       -0.0160
      7 C           5.2735    0.6933   -0.7242 C.ar    1  UNL1       -0.0456
      8 C           3.3594    6.7920    0.3477 C.ar    1  UNL1       -0.0160
      9 C           5.5578   -4.2589   -0.4159 C.3     1  UNL1       -0.0256
     10 C          -9.3193    2.5302   -0.8602 C.3     1  UNL1       -0.0313
     11 C          -6.3299   -1.4920    2.6307 C.3     1  UNL1       -0.0361
     12 C          -1.2942   -5.5521   -2.3861 C.3     1  UNL1       -0.0127
     13 C          -3.1556   -5.7482   -0.8500 C.3     1  UNL1       -0.0127
     14 C          -1.9621   -1.8460    2.5493 C.3     1  UNL1       -0.0361
     15 C           8.7898   -2.3847    1.3349 C.3     1  UNL1        0.0817
     16 C           4.6762   -5.5087   -0.3736 C.3     1  UNL1       -0.0626
     17 H           7.1725    5.5703   -0.5809 H       1  UNL1        0.2922
     18 H           1.4364    5.4537    2.0042 H       1  UNL1        0.2922
     19 H          -5.4206    1.8500    2.5224 H       1  UNL1        0.1422
     20 H          -5.2720    3.5234    2.5387 H       1  UNL1        0.1422
     21 H          -6.3497   -2.7361   -2.4580 H       1  UNL1        0.2099
     22 H           1.5086    0.6954    1.9370 H       1  UNL1        0.2922
     23 H           3.2128   -3.8315   -1.5760 H       1  UNL1        0.2102
     24 C           5.2155    5.6403   -0.6609 C.ar    1  UNL1        0.1286
     25 C           2.6699    5.5881    0.4871 C.ar    1  UNL1        0.1286
     26 C           2.7440    0.6372    0.4168 C.ar    1  UNL1        0.1343
     27 O          -7.6290    5.1709   -1.2295 O.2     1  UNL1       -0.2899
     28 O           1.3556    3.0952    0.4520 O.2     1  UNL1       -0.2864
     29 O           6.1387    3.1924   -1.7104 O.2     1  UNL1       -0.2865
     30 O           6.3810   -1.4127    1.6561 O.2     1  UNL1       -0.2501
     31 C           3.8483   -2.9393    0.8535 C.3     1  UNL1        0.0079
     32 C          -0.0712   -3.5870   -0.8673 C.3     1  UNL1        0.0165
     33 C          -4.5051   -1.2770   -1.2298 C.3     1  UNL1        0.0270
     34 O           6.4518    5.6752   -1.2171 O.3     1  UNL1       -0.5060
     35 O           1.4337    5.5729    1.0446 O.3     1  UNL1       -0.5060
     36 O          -6.5971   -2.4436   -1.5701 O.3     1  UNL1       -0.3890
     37 O           1.5084    0.6025    0.9745 O.3     1  UNL1       -0.5057
     38 O           3.7972   -3.0612   -1.5656 O.3     1  UNL1       -0.3873
     39 C           6.6108   -1.8292    0.5455 C.2     1  UNL1        0.3171
     40 O          -5.9702    0.4608    0.5768 O.3     1  UNL1       -0.3377
     41 O          -2.6118   -2.3582   -0.1851 O.3     1  UNL1       -0.3439
     42 O           1.8359   -2.2275   -0.2674 O.3     1  UNL1       -0.3432
     43 O           7.8137   -2.3521    0.2604 O.3     1  UNL1       -0.4674
     44 C           0.7602   -2.9965    0.2745 C.3     1  UNL1        0.1619
     45 C          -1.2561   -4.3593   -0.2793 C.3     1  UNL1        0.0431
     46 C          -1.1660   -2.8338    1.6941 C.3     1  UNL1        0.0865
     47 C          -2.0748   -3.4178    0.6092 C.3     1  UNL1        0.1031
     48 C          -4.0399   -2.3075   -0.1976 C.3     1  UNL1        0.1625
     49 C          -6.0338   -1.1851   -1.1947 C.3     1  UNL1        0.0884
     50 C          -5.9388   -1.8750    1.2020 C.3     1  UNL1        0.0875
     51 C          -6.4803   -0.8272    0.2261 C.3     1  UNL1        0.1138
     52 C           5.1599    3.1688   -0.9895 C.2     1  UNL1        0.1982
     53 C           2.5437    3.1149    0.1925 C.2     1  UNL1        0.2016
     54 C          -7.3898    4.0867   -0.7352 C.2     1  UNL1        0.1860
     55 C          -6.3608    2.7918    0.9900 C.2     1  UNL1        0.0611
     56 C           4.5410    4.4254   -0.5290 C.ar    1  UNL1        0.0779
     57 C           4.5741    1.8791   -0.5633 C.ar    1  UNL1        0.0370
     58 C           4.7191   -0.5187   -0.3167 C.ar    1  UNL1       -0.0211
     59 C           3.2556    4.3992    0.0510 C.ar    1  UNL1        0.0780
     60 C           3.2905    1.8547    0.0161 C.ar    1  UNL1        0.0749
     61 C           3.4651   -0.5500    0.2466 C.ar    1  UNL1        0.0275
     62 O          -7.0410    1.7396   -1.0562 O.3     1  UNL1       -0.3352
     63 O          -4.5147   -1.9312    1.0966 O.3     1  UNL1       -0.3456
     64 O          -0.0684   -2.1556    1.0798 O.3     1  UNL1       -0.3457
     65 N          -5.6126    2.7143    2.1261 N.pl3   1  UNL1       -0.3572
     66 C          -6.6275    4.0004    0.4387 C.2     1  UNL1        0.0049
     67 N          -2.1016   -4.8660   -1.3685 N.3     1  UNL1       -0.3027
     68 H          -7.9436    2.9587   -2.4630 H       1  UNL1        0.0677
     69 H          -7.8554    1.2794    0.7880 H       1  UNL1        0.0978
     70 H           6.0227   -1.7204   -1.4994 H       1  UNL1        0.0491
     71 H           5.1369    7.7574   -0.3202 H       1  UNL1        0.0655
     72 H           6.2574    0.7088   -1.1691 H       1  UNL1        0.0628
     73 H           2.9058    7.7115    0.6869 H       1  UNL1        0.0655
     74 H           3.3455   -3.8917    1.0216 H       1  UNL1        0.0322
     75 H           4.5030   -2.7152    1.6956 H       1  UNL1        0.0322
     76 H           2.3187   -1.6625    1.6573 H       1  UNL1        0.0649
     77 H           1.1625   -3.8038    0.8865 H       1  UNL1        0.0910
     78 H          -0.4404   -2.7822   -1.5031 H       1  UNL1        0.0330
     79 H           0.5480   -4.2632   -1.4568 H       1  UNL1        0.0330
     80 H          -0.8875   -5.1943    0.3165 H       1  UNL1        0.0490
     81 H          -0.7889   -3.6390    2.3246 H       1  UNL1        0.0620
     82 H          -2.8892   -3.9727    1.0749 H       1  UNL1        0.0638
     83 H          -4.4362   -3.2886   -0.4593 H       1  UNL1        0.0910
     84 H          -4.0761   -0.3037   -0.9917 H       1  UNL1        0.0340
     85 H          -4.1815   -1.5855   -2.2239 H       1  UNL1        0.0340
     86 H          -6.3687   -0.4142   -1.8887 H       1  UNL1        0.0622
     87 H          -6.3600   -2.8505    0.9589 H       1  UNL1        0.0621
     88 H          -7.5692   -0.8131    0.2740 H       1  UNL1        0.0649
     89 H          -6.2508    4.8994    0.9037 H       1  UNL1        0.0670
     90 H          -9.9806    3.3612   -1.1055 H       1  UNL1        0.0259
     91 H          -9.6938    1.6183   -1.3252 H       1  UNL1        0.0259
     92 H          -9.2861    2.3993    0.2214 H       1  UNL1        0.0259
     93 H          -5.9550   -0.4933    2.8547 H       1  UNL1        0.0255
     94 H          -7.4158   -1.5021    2.7253 H       1  UNL1        0.0255
     95 H          -5.8977   -2.2077    3.3301 H       1  UNL1        0.0255
     96 H          -1.9492   -5.9546   -3.1589 H       1  UNL1        0.0391
     97 H          -0.5962   -4.8446   -2.8337 H       1  UNL1        0.0391
     98 H          -0.7383   -6.3660   -1.9208 H       1  UNL1        0.0391
     99 H          -2.7016   -6.6308   -0.3994 H       1  UNL1        0.0391
    100 H          -3.7382   -5.2154   -0.0985 H       1  UNL1        0.0391
    101 H          -3.8090   -6.0531   -1.6675 H       1  UNL1        0.0391
    102 H          -2.3935   -1.0766    1.9090 H       1  UNL1        0.0255
    103 H          -2.7604   -2.3762    3.0686 H       1  UNL1        0.0255
    104 H          -1.2995   -1.3815    3.2795 H       1  UNL1        0.0255
    105 H           8.4005   -2.9792    2.1614 H       1  UNL1        0.0661
    106 H           9.7157   -2.8304    0.9713 H       1  UNL1        0.0661
    107 H           8.9858   -1.3691    1.6786 H       1  UNL1        0.0661
    108 H           6.1766   -4.2809   -1.3129 H       1  UNL1        0.0290
    109 H           6.1975   -4.2355    0.4663 H       1  UNL1        0.0290
    110 H           5.3067   -6.3977   -0.3583 H       1  UNL1        0.0231
    111 H           4.0574   -5.4867    0.5234 H       1  UNL1        0.0231
    112 H           4.0365   -5.5321   -1.2558 H       1  UNL1        0.0231
@<TRIPOS>BOND
     1    13    67    1
     2    12    67    1
     3    30    39    2
     4    55    65    1
     5    39    43    1
     6     5    55    1
     7    55    66    2
     8     2    58    1
     9     9    16    1
    10    41    48    1
    11    50    63    1
    12    41    47    1
    13    44    64    1
    14    46    64    1
    15    15    43    1
    16    54    66    1
    17     1    68    1
    18     2     3    1
    19    48    63    1
    20    56    59   ar
    21     6     8   ar
    22    42    44    1
    23     2    39    1
    24     4    42    1
    25     6    24   ar
    26    24    34    1
    27    24    56   ar
    28    57    60   ar
    29     7    58   ar
    30    58    61   ar
    31    29    52    2
    32    27    54    2
    33     7    57   ar
    34    28    53    2
    35    52    57    1
    36    52    56    1
    37     1    10    1
    38     3    38    1
    39    11    50    1
    40     3     9    1
    41     5    69    1
    42     1    54    1
    43     1    62    1
    44     5    40    1
    45     3    31    1
    46     5    62    1
    47    40    51    1
    48     4    61    1
    49    25    59   ar
    50    50    51    1
    51    45    47    1
    52     8    25   ar
    53    32    45    1
    54    26    61   ar
    55    26    60   ar
    56    53    59    1
    57    53    60    1
    58    32    44    1
    59    26    37    1
    60    25    35    1
    61     4    31    1
    62    36    49    1
    63    33    49    1
    64    45    67    1
    65    46    47    1
    66    14    46    1
    67    33    48    1
    68    49    51    1
    69     2    70    1
    70     6    71    1
    71     7    72    1
    72     8    73    1
    73    31    74    1
    74    31    75    1
    75     4    76    1
    76    44    77    1
    77    32    78    1
    78    32    79    1
    79    45    80    1
    80    46    81    1
    81    47    82    1
    82    48    83    1
    83    33    84    1
    84    33    85    1
    85    49    86    1
    86    50    87    1
    87    51    88    1
    88    66    89    1
    89    10    90    1
    90    10    91    1
    91    10    92    1
    92    17    34    1
    93    18    35    1
    94    19    65    1
    95    20    65    1
    96    11    93    1
    97    11    94    1
    98    11    95    1
    99    21    36    1
   100    22    37    1
   101    12    96    1
   102    12    97    1
   103    12    98    1
   104    13    99    1
   105    13   100    1
   106    13   101    1
   107    14   102    1
   108    14   103    1
   109    14   104    1
   110    15   105    1
   111    15   106    1
   112    15   107    1
   113    23    38    1
   114     9   108    1
   115     9   109    1
   116    16   110    1
   117    16   111    1
   118    16   112    1

